Mass spectrum: 5,7-dihydroxy-2-(4-hydroxyphenyl)chroman-4-one; MS/MS; QqTOF; CE:15 eV; [M+H]+
Name: 5,7-dihydroxy-2-(4-hydroxyphenyl)chroman-4-one
Name: Naringenin
Formula: C15H12O5
Exact mass: 272.06847
SMILES: C1C(OC2=CC(=CC(=C2C1=O)O)O)C3=CC=C(C=C3)O
InChI: 1/C15H12O5/c16-9-3-1-8(2-4-9)13-7-12(19)15-11(18)5-10(17)6-14(15)20-13/h1-6,13,16-18H,7H2
Instrument: API QSTAR Pulsar i
m/z	relative intensity
147.044	20
153.019	30
273.076	999
274.083	30
